Circuit: * C:\Users\evanp\OneDrive\Documents\Personal\Projects\New_Projects\Laser Driver\Simulations\Laser driver.asc

Direct Newton iteration failed to find .op point.  (Use ".option noopiter" to skip.)
Starting Gmin stepping
Gmin = 10
Gmin = 1.07374
Gmin = 0.115292
Gmin = 0.0123794
Gmin = 0.00132923
Gmin = 0.000142725
Gmin = 1.5325e-005
vernier = 0.5
Gmin = 3.91876e-006
vernier = 0.25
vernier = 0.125
vernier = 0.0625
vernier = 0.03125
vernier = 0.015625
vernier = 0.0078125
vernier = 0.00390625
vernier = 0.00195313
vernier = 0.000976563
Gmin = 3.91876e-006
vernier = 0.000488281
Gmin = 0
Gmin stepping failed

Starting source stepping with srcstepmethod=0
Source Step = 3.0303%
Source Step = 21.2121%
vernier = 0.0625
Source Step = 22.3485%
Source Step = 23.6269%
Source Step = 24.1004%
Source Step = 24.5739%
Source Step = 25.0473%
Source Step = 25.438%
Source Step = 25.5563%
Source Step = 25.6747%
Source Step = 25.7931%
Source Step = 25.9115%
Source Step = 26.0298%
vernier = 0.00585938
Source Step = 26.2074%
Source Step = 26.3849%
Source Step = 26.5625%
Source Step = 26.7401%
Source Step = 26.9176%
vernier = 0.00878906
Source Step = 27.1751%
Source Step = 27.4414%
Source Step = 27.7077%
Source Step = 27.9741%
Source Step = 28.2404%
vernier = 0.0131836
Source Step = 28.6133%
Source Step = 29.0128%
Source Step = 29.4123%
Source Step = 29.8118%
Source Step = 30.2113%
vernier = 0.0197754
Source Step = 30.7506%
Source Step = 31.3499%
Source Step = 31.9491%
Source Step = 32.5484%
Source Step = 33.1476%
vernier = 0.0296631
Source Step = 33.9267%
Source Step = 34.8256%
Source Step = 35.7244%
Source Step = 36.6233%
Source Step = 37.5222%
vernier = 0.0444946
Source Step = 38.6458%
Source Step = 39.9941%
Source Step = 41.3424%
Source Step = 42.6908%
Source Step = 44.0391%
vernier = 0.0667419
Source Step = 45.6571%
Source Step = 47.6796%
Source Step = 49.702%
Source Step = 51.7245%
Source Step = 53.747%
vernier = 0.100113
Source Step = 56.0729%
Source Step = 59.1066%
Source Step = 62.1403%
Source Step = 65.174%
Source Step = 68.2078%
vernier = 0.150169
Source Step = 71.5449%
Source Step = 76.0954%
Source Step = 80.646%
Source Step = 85.1966%
Source Step = 89.7472%
vernier = 0.225254
Source Step = 94.5253%
Source stepping succeeded in finding the operating point.


Date: Tue Nov 26 21:02:08 2024
Total elapsed time: 0.898 seconds.

tnom = 27
temp = 27
method = modified trap
totiter = 66309
traniter = 62135
tranpoints = 30865
accept = 30651
rejected = 214
matrix size = 43
fillins = 40
solver = Normal
Thread vector: 3.6/3.3[2] 1.3/1.0[2] 0.7/1.3[1] 0.1/1.5[1]  2592/500
Matrix Compiler1: 4.17 KB object code size  0.6/0.3/[0.2]
Matrix Compiler2: off  [0.2]/0.4/0.3

