Circuit: * C:\Users\evanp\OneDrive\Documents\Personal\Projects\New_Projects\Laser Driver\Simulations\Supercap.asc

ERROR: Node N001 is floating and connected to current source I1

Direct Newton iteration for .op point succeeded.

Date: Thu Nov 28 17:09:25 2024
Total elapsed time: 1.254 seconds.

tnom = 27
temp = 27
method = modified trap
totiter = 400037
traniter = 400034
tranpoints = 200018
accept = 200018
rejected = 0
matrix size = 2
fillins = 0
solver = Normal
Matrix Compiler1: off  [0.0]/0.0/0.0
Matrix Compiler2:      10 opcodes  0.0/[0.0]/0.0

